CRYSTAL
# Primitive lattice vectors in Angstrom
PRIMVEC
 3.34889827135837 0.00000000000000 1.93348731844598
 1.11629942376849 3.15737156958741 1.93348731844598
 0.00000000000000 0.00000000000000 3.86697463689197
# Cartesian coordinates in Angstrom.
PRIMCOORD
 2 1
14     0.00000000000000     0.00000000000000     0.00000000000000
14     1.11629942378171     0.78934289239685     1.93348731844598